CE NGF test program 1
GW 1 10 0.0 0.0 0.0 0.0 0.0 0.1 0.0015
GW 2 10 0.0 0.0 0.1 0.1 0.0 0.1 0.0015
GW 3 10 0.1 0.0 0.1 0.1 0.0 0.2 0.0015
GW 4 10 0.1 0.0 0.2 0.1 0.1 0.2 0.0015
GE 0
FR 0  1  0  0  1000.0  0.0
WG
EX 1 1 1 0 90.0 0.0 0.0 0.0 0.0 0
XQ
EN
