CE Dipole 900 Free space
GW 1 21 -74.5e-3 0.0 15e-3 74.5e-3 0.0 15e-3 1.8e-3
GE 1
GN 2 0 0 0 41.5 0.97 41.5 0.97 1 0
EK
EX 0 1 11 0 1.0 0.0 0.0
LD 0 1 11 11 50.0 0.0 0.0
FR 0 100 0 0 500.0 10.0
XQ
EN
