CE TESTSYMM.NEC: NEC2 symmetry test program.
GW 1 25 0.0 0.0 -0.069 0.0 0.0 0.069 0.0015
GR 1 4
GE 0
FR 0  1  0  0  1000.0  0.0
EX 1 1 1 0 90.0 0.0 0.0 0.0 0.0 0
XQ
EN
