CE TESTDIP2.NEC: 1GHz Half-Wave Dipole #2
GW 1 21 0.0 0.0 -0.075 0.0 0.0 0.075 0.001
GE 0
EX 0 1 11 0 1.0 0.0
FR 0 1 0 0 1000.0 0.0
RP 0 180 1 0 0.0 0.0 1.0 0.0 1.0 0
XQ
EN
