CE PLT Vertial Dipole Model #1
GW 1 30  0.00 0.00  0.10  0.00 0.00  6.00 0.002
GE 1
GN 2 0 0 0 20.0 0.015 20.0 0.015 100.0 0.0
EX 0   1 1 0 1.0 0.0 0.0
FR 0 1 0 0 10.0 1.0
RP 0 9 36 0 0.0 0.0 10.0 10.0 9000.0 0
XQ
EN
