CE TESTNETW.NEC: NEC2 network card test.
GW 1 25 0.0 0.0 -0.069 0.0 0.0 0.069 0.0015
GE 0
NT 1 9 1 17 10.0 20.0 13.0 17.0 7.0 21.0
FR 0  1  0  0  1000.0  0.0
EX 1 1 1 0 90.0 0.0 0.0 0.0 0.0 0
XQ
EN
