CE TESTRAN.NEC: NEC2 transmission line coupling test.
GW 1 21  0.0  0.0  -0.069  0.0  0.0 0.069 0.0015
GM 0  0  90.0  0.0  0.0  0.1  0.0 0.0 1
GW 2  3  0.0 -0.1  0.0  0.0 -0.1 0.0039 1E-3
GW 3  3  0.0  0.1  0.0  0.0  0.1 0.0039 1E-3
GW 4 11  0.0 -0.1  0.0  0.0  0.0  0.0 0
GC 0  0 1.40511583 1E-3 1E-3
GW 5 11  0.0  0.0  0.0  0.0  0.1  0.0 0
GC 0  0 7.116851E-01 1E-3 1E-3
GM 2  1  0.0  0.0  0.0  0.0  0.0 0.0039 4
GE 0
LD 0 2 2 2 120.0 0.0 0.0
LD 0 3 2 2 120.0 0.0 0.0
EX 0 1 11 0 1.0 0.0
EK 0
FR 0 1 0 0 1000.0 0.0   
XQ
EN
