CE TESTDIP1.NEC: 1GHz Half-Wave Dipole #1
GW 1 21 0.0 0.0 -0.075 0.0 0.0 0.075 0.001
GE 0
EX 0 1 11 0 1.0 0.0
FR 0 21 0 0 500.0 50.0
XQ
EN
